*SPEF "ieee 1481-1999"
*DESIGN "user_project_wrapper"
*DATE "11:11:11 Fri 11 11, 1111"
*VENDOR "OpenRCX"
*PROGRAM "Parallel Extraction"
*VERSION "1.0"
*DESIGN_FLOW "NAME_SCOPE LOCAL" "PIN_CAP NONE"
*DIVIDER /
*DELIMITER :
*BUS_DELIMITER []
*T_UNIT 1 NS
*C_UNIT 1 PF
*R_UNIT 1 OHM
*L_UNIT 1 HENRY

*NAME_MAP
*1 analog_io[0]
*2 analog_io[10]
*3 analog_io[11]
*4 analog_io[12]
*5 analog_io[13]
*6 analog_io[14]
*7 analog_io[15]
*8 analog_io[16]
*9 analog_io[17]
*10 analog_io[18]
*11 analog_io[19]
*12 analog_io[1]
*13 analog_io[20]
*14 analog_io[21]
*15 analog_io[22]
*16 analog_io[23]
*17 analog_io[24]
*18 analog_io[25]
*19 analog_io[26]
*20 analog_io[27]
*21 analog_io[28]
*22 analog_io[2]
*23 analog_io[3]
*24 analog_io[4]
*25 analog_io[5]
*26 analog_io[6]
*27 analog_io[7]
*28 analog_io[8]
*29 analog_io[9]
*30 io_in[0]
*31 io_in[10]
*32 io_in[11]
*33 io_in[12]
*34 io_in[13]
*35 io_in[14]
*36 io_in[15]
*37 io_in[16]
*38 io_in[17]
*39 io_in[18]
*40 io_in[19]
*41 io_in[1]
*42 io_in[20]
*43 io_in[21]
*44 io_in[22]
*45 io_in[23]
*46 io_in[24]
*47 io_in[25]
*48 io_in[26]
*49 io_in[27]
*50 io_in[28]
*51 io_in[29]
*52 io_in[2]
*53 io_in[30]
*54 io_in[31]
*55 io_in[32]
*56 io_in[33]
*57 io_in[34]
*58 io_in[35]
*59 io_in[36]
*60 io_in[37]
*61 io_in[3]
*62 io_in[4]
*63 io_in[5]
*64 io_in[6]
*65 io_in[7]
*66 io_in[8]
*67 io_in[9]
*68 wb_rst_i
*69 io_out[0]
*70 io_out[10]
*71 io_out[11]
*72 io_out[12]
*73 io_out[13]
*74 io_out[14]
*75 io_out[15]
*76 io_out[16]
*77 io_out[17]
*78 io_out[18]
*79 io_out[19]
*80 io_out[1]
*81 io_out[20]
*82 io_out[21]
*83 io_out[22]
*84 io_out[23]
*85 io_out[24]
*86 io_out[25]
*87 io_out[26]
*88 io_out[27]
*89 io_out[28]
*90 io_out[29]
*91 io_out[2]
*92 io_out[30]
*93 io_out[31]
*94 io_out[32]
*95 io_out[33]
*96 io_out[34]
*97 io_out[35]
*98 io_out[36]
*99 io_out[37]
*100 io_out[3]
*101 io_out[4]
*102 io_out[5]
*103 io_out[6]
*104 io_out[7]
*105 io_out[8]
*106 io_out[9]
*107 la_data_in[0]
*108 la_data_in[100]
*109 la_data_in[101]
*110 la_data_in[102]
*111 la_data_in[103]
*112 la_data_in[104]
*113 la_data_in[105]
*114 la_data_in[106]
*115 la_data_in[107]
*116 la_data_in[108]
*117 la_data_in[109]
*118 la_data_in[10]
*119 la_data_in[110]
*120 la_data_in[111]
*121 la_data_in[112]
*122 la_data_in[113]
*123 la_data_in[114]
*124 la_data_in[115]
*125 la_data_in[116]
*126 la_data_in[117]
*127 la_data_in[118]
*128 la_data_in[119]
*129 la_data_in[11]
*130 la_data_in[120]
*131 la_data_in[121]
*132 la_data_in[122]
*133 la_data_in[123]
*134 la_data_in[124]
*135 la_data_in[125]
*136 la_data_in[126]
*137 la_data_in[127]
*138 la_data_in[12]
*139 la_data_in[13]
*140 la_data_in[14]
*141 la_data_in[15]
*142 la_data_in[16]
*143 la_data_in[17]
*144 la_data_in[18]
*145 la_data_in[19]
*146 la_data_in[1]
*147 la_data_in[20]
*148 la_data_in[21]
*149 la_data_in[22]
*150 la_data_in[23]
*151 la_data_in[24]
*152 la_data_in[25]
*153 la_data_in[26]
*154 la_data_in[27]
*155 la_data_in[28]
*156 la_data_in[29]
*157 la_data_in[2]
*158 la_data_in[30]
*159 la_data_in[31]
*160 la_data_in[32]
*161 la_data_in[33]
*162 la_data_in[34]
*163 la_data_in[35]
*164 la_data_in[36]
*165 la_data_in[37]
*166 la_data_in[38]
*167 la_data_in[39]
*168 la_data_in[3]
*169 la_data_in[40]
*170 la_data_in[41]
*171 la_data_in[42]
*172 la_data_in[43]
*173 la_data_in[44]
*174 la_data_in[45]
*175 la_data_in[46]
*176 la_data_in[47]
*177 la_data_in[48]
*178 la_data_in[49]
*179 la_data_in[4]
*180 la_data_in[50]
*181 la_data_in[51]
*182 la_data_in[52]
*183 la_data_in[53]
*184 la_data_in[54]
*185 la_data_in[55]
*186 la_data_in[56]
*187 la_data_in[57]
*188 la_data_in[58]
*189 la_data_in[59]
*190 la_data_in[5]
*191 la_data_in[60]
*192 la_data_in[61]
*193 la_data_in[62]
*194 la_data_in[63]
*195 la_data_in[64]
*196 la_data_in[65]
*197 la_data_in[66]
*198 la_data_in[67]
*199 la_data_in[68]
*200 la_data_in[69]
*201 la_data_in[6]
*202 la_data_in[70]
*203 la_data_in[71]
*204 la_data_in[72]
*205 la_data_in[73]
*206 la_data_in[74]
*207 la_data_in[75]
*208 la_data_in[76]
*209 la_data_in[77]
*210 la_data_in[78]
*211 la_data_in[79]
*212 la_data_in[7]
*213 la_data_in[80]
*214 la_data_in[81]
*215 la_data_in[82]
*216 la_data_in[83]
*217 la_data_in[84]
*218 la_data_in[85]
*219 la_data_in[86]
*220 la_data_in[87]
*221 la_data_in[88]
*222 la_data_in[89]
*223 la_data_in[8]
*224 la_data_in[90]
*225 la_data_in[91]
*226 la_data_in[92]
*227 la_data_in[93]
*228 la_data_in[94]
*229 la_data_in[95]
*230 la_data_in[96]
*231 la_data_in[97]
*232 la_data_in[98]
*233 la_data_in[99]
*234 la_data_in[9]
*235 la_data_out[0]
*236 la_data_out[100]
*237 la_data_out[101]
*238 la_data_out[102]
*239 la_data_out[103]
*240 la_data_out[104]
*241 la_data_out[105]
*242 la_data_out[106]
*243 la_data_out[107]
*244 la_data_out[108]
*245 la_data_out[109]
*246 la_data_out[10]
*247 la_data_out[110]
*248 la_data_out[111]
*249 la_data_out[112]
*250 la_data_out[113]
*251 la_data_out[114]
*252 la_data_out[115]
*253 la_data_out[116]
*254 la_data_out[117]
*255 la_data_out[118]
*256 la_data_out[119]
*257 la_data_out[11]
*258 la_data_out[120]
*259 la_data_out[121]
*260 la_data_out[122]
*261 la_data_out[123]
*262 la_data_out[124]
*263 la_data_out[125]
*264 la_data_out[126]
*265 la_data_out[127]
*266 la_data_out[12]
*267 la_data_out[13]
*268 la_data_out[14]
*269 la_data_out[15]
*270 la_data_out[16]
*271 la_data_out[17]
*272 la_data_out[18]
*273 la_data_out[19]
*274 la_data_out[1]
*275 la_data_out[20]
*276 la_data_out[21]
*277 la_data_out[22]
*278 la_data_out[23]
*279 la_data_out[24]
*280 la_data_out[25]
*281 la_data_out[26]
*282 la_data_out[27]
*283 la_data_out[28]
*284 la_data_out[29]
*285 la_data_out[2]
*286 la_data_out[30]
*287 la_data_out[31]
*288 la_data_out[32]
*289 la_data_out[33]
*290 la_data_out[34]
*291 la_data_out[35]
*292 la_data_out[36]
*293 la_data_out[37]
*294 la_data_out[38]
*295 la_data_out[39]
*296 la_data_out[3]
*297 la_data_out[40]
*298 la_data_out[41]
*299 la_data_out[42]
*300 la_data_out[43]
*301 la_data_out[44]
*302 la_data_out[45]
*303 la_data_out[46]
*304 la_data_out[47]
*305 la_data_out[48]
*306 la_data_out[49]
*307 la_data_out[4]
*308 la_data_out[50]
*309 la_data_out[51]
*310 la_data_out[52]
*311 la_data_out[53]
*312 la_data_out[54]
*313 la_data_out[55]
*314 la_data_out[56]
*315 la_data_out[57]
*316 la_data_out[58]
*317 la_data_out[59]
*318 la_data_out[5]
*319 la_data_out[60]
*320 la_data_out[61]
*321 la_data_out[62]
*322 la_data_out[63]
*323 la_data_out[64]
*324 la_data_out[65]
*325 la_data_out[66]
*326 la_data_out[67]
*327 la_data_out[68]
*328 la_data_out[69]
*329 la_data_out[6]
*330 la_data_out[70]
*331 la_data_out[71]
*332 la_data_out[72]
*333 la_data_out[73]
*334 la_data_out[74]
*335 la_data_out[75]
*336 la_data_out[76]
*337 la_data_out[77]
*338 la_data_out[78]
*339 la_data_out[79]
*340 la_data_out[7]
*341 la_data_out[80]
*342 la_data_out[81]
*343 la_data_out[82]
*344 la_data_out[83]
*345 la_data_out[84]
*346 la_data_out[85]
*347 la_data_out[86]
*348 la_data_out[87]
*349 la_data_out[88]
*350 la_data_out[89]
*351 la_data_out[8]
*352 la_data_out[90]
*353 la_data_out[91]
*354 la_data_out[92]
*355 la_data_out[93]
*356 la_data_out[94]
*357 la_data_out[95]
*358 la_data_out[96]
*359 la_data_out[97]
*360 la_data_out[98]
*361 la_data_out[99]
*362 la_data_out[9]
*363 la_oenb[0]
*364 la_oenb[100]
*365 la_oenb[101]
*366 la_oenb[102]
*367 la_oenb[103]
*368 la_oenb[104]
*369 la_oenb[105]
*370 la_oenb[106]
*371 la_oenb[107]
*372 la_oenb[108]
*373 la_oenb[109]
*374 la_oenb[10]
*375 la_oenb[110]
*376 la_oenb[111]
*377 la_oenb[112]
*378 la_oenb[113]
*379 la_oenb[114]
*380 la_oenb[115]
*381 la_oenb[116]
*382 la_oenb[117]
*383 la_oenb[118]
*384 la_oenb[119]
*385 la_oenb[11]
*386 la_oenb[120]
*387 la_oenb[121]
*388 la_oenb[122]
*389 la_oenb[123]
*390 la_oenb[124]
*391 la_oenb[125]
*392 la_oenb[126]
*393 la_oenb[127]
*394 la_oenb[12]
*395 la_oenb[13]
*396 la_oenb[14]
*397 la_oenb[15]
*398 la_oenb[16]
*399 la_oenb[17]
*400 la_oenb[18]
*401 la_oenb[19]
*402 la_oenb[1]
*403 la_oenb[20]
*404 la_oenb[21]
*405 la_oenb[22]
*406 la_oenb[23]
*407 la_oenb[24]
*408 la_oenb[25]
*409 la_oenb[26]
*410 la_oenb[27]
*411 la_oenb[28]
*412 la_oenb[29]
*413 la_oenb[2]
*414 la_oenb[30]
*415 la_oenb[31]
*416 la_oenb[32]
*417 la_oenb[33]
*418 la_oenb[34]
*419 la_oenb[35]
*420 la_oenb[36]
*421 la_oenb[37]
*422 la_oenb[38]
*423 la_oenb[39]
*424 la_oenb[3]
*425 la_oenb[40]
*426 la_oenb[41]
*427 la_oenb[42]
*428 la_oenb[43]
*429 la_oenb[44]
*430 la_oenb[45]
*431 la_oenb[46]
*432 la_oenb[47]
*433 la_oenb[48]
*434 la_oenb[49]
*435 la_oenb[4]
*436 la_oenb[50]
*437 la_oenb[51]
*438 la_oenb[52]
*439 la_oenb[53]
*440 la_oenb[54]
*441 la_oenb[55]
*442 la_oenb[56]
*443 la_oenb[57]
*444 la_oenb[58]
*445 la_oenb[59]
*446 la_oenb[5]
*447 la_oenb[60]
*448 la_oenb[61]
*449 la_oenb[62]
*450 la_oenb[63]
*451 la_oenb[64]
*452 la_oenb[65]
*453 la_oenb[66]
*454 la_oenb[67]
*455 la_oenb[68]
*456 la_oenb[69]
*457 la_oenb[6]
*458 la_oenb[70]
*459 la_oenb[71]
*460 la_oenb[72]
*461 la_oenb[73]
*462 la_oenb[74]
*463 la_oenb[75]
*464 la_oenb[76]
*465 la_oenb[77]
*466 la_oenb[78]
*467 la_oenb[79]
*468 la_oenb[7]
*469 la_oenb[80]
*470 la_oenb[81]
*471 la_oenb[82]
*472 la_oenb[83]
*473 la_oenb[84]
*474 la_oenb[85]
*475 la_oenb[86]
*476 la_oenb[87]
*477 la_oenb[88]
*478 la_oenb[89]
*479 la_oenb[8]
*480 la_oenb[90]
*481 la_oenb[91]
*482 la_oenb[92]
*483 la_oenb[93]
*484 la_oenb[94]
*485 la_oenb[95]
*486 la_oenb[96]
*487 la_oenb[97]
*488 la_oenb[98]
*489 la_oenb[99]
*490 la_oenb[9]
*491 user_clock2
*492 user_irq[0]
*493 user_irq[1]
*494 user_irq[2]
*503 wb_clk_i
*504 wbs_ack_o
*505 wbs_adr_i[0]
*506 wbs_adr_i[10]
*507 wbs_adr_i[11]
*508 wbs_adr_i[12]
*509 wbs_adr_i[13]
*510 wbs_adr_i[14]
*511 wbs_adr_i[15]
*512 wbs_adr_i[16]
*513 wbs_adr_i[17]
*514 wbs_adr_i[18]
*515 wbs_adr_i[19]
*516 wbs_adr_i[1]
*517 wbs_adr_i[20]
*518 wbs_adr_i[21]
*519 wbs_adr_i[22]
*520 wbs_adr_i[23]
*521 wbs_adr_i[24]
*522 wbs_adr_i[25]
*523 wbs_adr_i[26]
*524 wbs_adr_i[27]
*525 wbs_adr_i[28]
*526 wbs_adr_i[29]
*527 wbs_adr_i[2]
*528 wbs_adr_i[30]
*529 wbs_adr_i[31]
*530 wbs_adr_i[3]
*531 wbs_adr_i[4]
*532 wbs_adr_i[5]
*533 wbs_adr_i[6]
*534 wbs_adr_i[7]
*535 wbs_adr_i[8]
*536 wbs_adr_i[9]
*537 wbs_cyc_i
*538 wbs_dat_i[0]
*539 wbs_dat_i[10]
*540 wbs_dat_i[11]
*541 wbs_dat_i[12]
*542 wbs_dat_i[13]
*543 wbs_dat_i[14]
*544 wbs_dat_i[15]
*545 wbs_dat_i[16]
*546 wbs_dat_i[17]
*547 wbs_dat_i[18]
*548 wbs_dat_i[19]
*549 wbs_dat_i[1]
*550 wbs_dat_i[20]
*551 wbs_dat_i[21]
*552 wbs_dat_i[22]
*553 wbs_dat_i[23]
*554 wbs_dat_i[24]
*555 wbs_dat_i[25]
*556 wbs_dat_i[26]
*557 wbs_dat_i[27]
*558 wbs_dat_i[28]
*559 wbs_dat_i[29]
*560 wbs_dat_i[2]
*561 wbs_dat_i[30]
*562 wbs_dat_i[31]
*563 wbs_dat_i[3]
*564 wbs_dat_i[4]
*565 wbs_dat_i[5]
*566 wbs_dat_i[6]
*567 wbs_dat_i[7]
*568 wbs_dat_i[8]
*569 wbs_dat_i[9]
*570 wbs_dat_o[0]
*571 wbs_dat_o[10]
*572 wbs_dat_o[11]
*573 wbs_dat_o[12]
*574 wbs_dat_o[13]
*575 wbs_dat_o[14]
*576 wbs_dat_o[15]
*577 wbs_dat_o[16]
*578 wbs_dat_o[17]
*579 wbs_dat_o[18]
*580 wbs_dat_o[19]
*581 wbs_dat_o[1]
*582 wbs_dat_o[20]
*583 wbs_dat_o[21]
*584 wbs_dat_o[22]
*585 wbs_dat_o[23]
*586 wbs_dat_o[24]
*587 wbs_dat_o[25]
*588 wbs_dat_o[26]
*589 wbs_dat_o[27]
*590 wbs_dat_o[28]
*591 wbs_dat_o[29]
*592 wbs_dat_o[2]
*593 wbs_dat_o[30]
*594 wbs_dat_o[31]
*595 wbs_dat_o[3]
*596 wbs_dat_o[4]
*597 wbs_dat_o[5]
*598 wbs_dat_o[6]
*599 wbs_dat_o[7]
*600 wbs_dat_o[8]
*601 wbs_dat_o[9]
*602 wbs_sel_i[0]
*603 wbs_sel_i[1]
*604 wbs_sel_i[2]
*605 wbs_sel_i[3]
*606 wbs_stb_i
*607 wbs_we_i
*608 sram_addr0\[0\]
*609 sram_addr0\[1\]
*610 sram_addr0\[2\]
*611 sram_addr0\[3\]
*612 sram_addr0\[4\]
*613 sram_addr0\[5\]
*614 sram_addr0\[6\]
*615 sram_addr0\[7\]
*616 sram_addr1\[0\]
*617 sram_addr1\[1\]
*618 sram_addr1\[2\]
*619 sram_addr1\[3\]
*620 sram_addr1\[4\]
*621 sram_addr1\[5\]
*622 sram_addr1\[6\]
*623 sram_addr1\[7\]
*624 sram_csb0
*625 sram_csb1
*626 sram_din0\[0\]
*627 sram_din0\[10\]
*628 sram_din0\[11\]
*629 sram_din0\[12\]
*630 sram_din0\[13\]
*631 sram_din0\[14\]
*632 sram_din0\[15\]
*633 sram_din0\[16\]
*634 sram_din0\[17\]
*635 sram_din0\[18\]
*636 sram_din0\[19\]
*637 sram_din0\[1\]
*638 sram_din0\[20\]
*639 sram_din0\[21\]
*640 sram_din0\[22\]
*641 sram_din0\[23\]
*642 sram_din0\[24\]
*643 sram_din0\[25\]
*644 sram_din0\[26\]
*645 sram_din0\[27\]
*646 sram_din0\[28\]
*647 sram_din0\[29\]
*648 sram_din0\[2\]
*649 sram_din0\[30\]
*650 sram_din0\[31\]
*651 sram_din0\[3\]
*652 sram_din0\[4\]
*653 sram_din0\[5\]
*654 sram_din0\[6\]
*655 sram_din0\[7\]
*656 sram_din0\[8\]
*657 sram_din0\[9\]
*658 sram_dout0\[0\]
*659 sram_dout0\[10\]
*660 sram_dout0\[11\]
*661 sram_dout0\[12\]
*662 sram_dout0\[13\]
*663 sram_dout0\[14\]
*664 sram_dout0\[15\]
*665 sram_dout0\[16\]
*666 sram_dout0\[17\]
*667 sram_dout0\[18\]
*668 sram_dout0\[19\]
*669 sram_dout0\[1\]
*670 sram_dout0\[20\]
*671 sram_dout0\[21\]
*672 sram_dout0\[22\]
*673 sram_dout0\[23\]
*674 sram_dout0\[24\]
*675 sram_dout0\[25\]
*676 sram_dout0\[26\]
*677 sram_dout0\[27\]
*678 sram_dout0\[28\]
*679 sram_dout0\[29\]
*680 sram_dout0\[2\]
*681 sram_dout0\[30\]
*682 sram_dout0\[31\]
*683 sram_dout0\[3\]
*684 sram_dout0\[4\]
*685 sram_dout0\[5\]
*686 sram_dout0\[6\]
*687 sram_dout0\[7\]
*688 sram_dout0\[8\]
*689 sram_dout0\[9\]
*690 sram_dout1\[0\]
*691 sram_dout1\[10\]
*692 sram_dout1\[11\]
*693 sram_dout1\[12\]
*694 sram_dout1\[13\]
*695 sram_dout1\[14\]
*696 sram_dout1\[15\]
*697 sram_dout1\[16\]
*698 sram_dout1\[17\]
*699 sram_dout1\[18\]
*700 sram_dout1\[19\]
*701 sram_dout1\[1\]
*702 sram_dout1\[20\]
*703 sram_dout1\[21\]
*704 sram_dout1\[22\]
*705 sram_dout1\[23\]
*706 sram_dout1\[24\]
*707 sram_dout1\[25\]
*708 sram_dout1\[26\]
*709 sram_dout1\[27\]
*710 sram_dout1\[28\]
*711 sram_dout1\[29\]
*712 sram_dout1\[2\]
*713 sram_dout1\[30\]
*714 sram_dout1\[31\]
*715 sram_dout1\[3\]
*716 sram_dout1\[4\]
*717 sram_dout1\[5\]
*718 sram_dout1\[6\]
*719 sram_dout1\[7\]
*720 sram_dout1\[8\]
*721 sram_dout1\[9\]
*722 sram_web0
*723 sram_wmask0\[0\]
*724 sram_wmask0\[1\]
*725 sram_wmask0\[2\]
*726 sram_wmask0\[3\]
*727 Modbus_w_RegSpace_Controller_inst
*728 sram_inst

*PORTS
analog_io[0] I
analog_io[10] I
analog_io[11] I
analog_io[12] I
analog_io[13] I
analog_io[14] I
analog_io[15] I
analog_io[16] I
analog_io[17] I
analog_io[18] I
analog_io[19] I
analog_io[1] I
analog_io[20] I
analog_io[21] I
analog_io[22] I
analog_io[23] I
analog_io[24] I
analog_io[25] I
analog_io[26] I
analog_io[27] I
analog_io[28] I
analog_io[2] I
analog_io[3] I
analog_io[4] I
analog_io[5] I
analog_io[6] I
analog_io[7] I
analog_io[8] I
analog_io[9] I
io_in[0] I
io_in[10] I
io_in[11] I
io_in[12] I
io_in[13] I
io_in[14] I
io_in[15] I
io_in[16] I
io_in[17] I
io_in[18] I
io_in[19] I
io_in[1] I
io_in[20] I
io_in[21] I
io_in[22] I
io_in[23] I
io_in[24] I
io_in[25] I
io_in[26] I
io_in[27] I
io_in[28] I
io_in[29] I
io_in[2] I
io_in[30] I
io_in[31] I
io_in[32] I
io_in[33] I
io_in[34] I
io_in[35] I
io_in[36] I
io_in[37] I
io_in[3] I
io_in[4] I
io_in[5] I
io_in[6] I
io_in[7] I
io_in[8] I
io_in[9] I
io_oeb[0] O
io_oeb[10] O
io_oeb[11] O
io_oeb[12] O
io_oeb[13] O
io_oeb[14] O
io_oeb[15] O
io_oeb[16] O
io_oeb[17] O
io_oeb[18] O
io_oeb[19] O
io_oeb[1] O
io_oeb[20] O
io_oeb[21] O
io_oeb[22] O
io_oeb[23] O
io_oeb[24] O
io_oeb[25] O
io_oeb[26] O
io_oeb[27] O
io_oeb[28] O
io_oeb[29] O
io_oeb[2] O
io_oeb[30] O
io_oeb[31] O
io_oeb[32] O
io_oeb[33] O
io_oeb[34] O
io_oeb[35] O
io_oeb[36] O
io_oeb[37] O
io_oeb[3] O
io_oeb[4] O
io_oeb[5] O
io_oeb[6] O
io_oeb[7] O
io_oeb[8] O
io_oeb[9] O
io_out[0] O
io_out[10] O
io_out[11] O
io_out[12] O
io_out[13] O
io_out[14] O
io_out[15] O
io_out[16] O
io_out[17] O
io_out[18] O
io_out[19] O
io_out[1] O
io_out[20] O
io_out[21] O
io_out[22] O
io_out[23] O
io_out[24] O
io_out[25] O
io_out[26] O
io_out[27] O
io_out[28] O
io_out[29] O
io_out[2] O
io_out[30] O
io_out[31] O
io_out[32] O
io_out[33] O
io_out[34] O
io_out[35] O
io_out[36] O
io_out[37] O
io_out[3] O
io_out[4] O
io_out[5] O
io_out[6] O
io_out[7] O
io_out[8] O
io_out[9] O
la_data_in[0] I
la_data_in[100] I
la_data_in[101] I
la_data_in[102] I
la_data_in[103] I
la_data_in[104] I
la_data_in[105] I
la_data_in[106] I
la_data_in[107] I
la_data_in[108] I
la_data_in[109] I
la_data_in[10] I
la_data_in[110] I
la_data_in[111] I
la_data_in[112] I
la_data_in[113] I
la_data_in[114] I
la_data_in[115] I
la_data_in[116] I
la_data_in[117] I
la_data_in[118] I
la_data_in[119] I
la_data_in[11] I
la_data_in[120] I
la_data_in[121] I
la_data_in[122] I
la_data_in[123] I
la_data_in[124] I
la_data_in[125] I
la_data_in[126] I
la_data_in[127] I
la_data_in[12] I
la_data_in[13] I
la_data_in[14] I
la_data_in[15] I
la_data_in[16] I
la_data_in[17] I
la_data_in[18] I
la_data_in[19] I
la_data_in[1] I
la_data_in[20] I
la_data_in[21] I
la_data_in[22] I
la_data_in[23] I
la_data_in[24] I
la_data_in[25] I
la_data_in[26] I
la_data_in[27] I
la_data_in[28] I
la_data_in[29] I
la_data_in[2] I
la_data_in[30] I
la_data_in[31] I
la_data_in[32] I
la_data_in[33] I
la_data_in[34] I
la_data_in[35] I
la_data_in[36] I
la_data_in[37] I
la_data_in[38] I
la_data_in[39] I
la_data_in[3] I
la_data_in[40] I
la_data_in[41] I
la_data_in[42] I
la_data_in[43] I
la_data_in[44] I
la_data_in[45] I
la_data_in[46] I
la_data_in[47] I
la_data_in[48] I
la_data_in[49] I
la_data_in[4] I
la_data_in[50] I
la_data_in[51] I
la_data_in[52] I
la_data_in[53] I
la_data_in[54] I
la_data_in[55] I
la_data_in[56] I
la_data_in[57] I
la_data_in[58] I
la_data_in[59] I
la_data_in[5] I
la_data_in[60] I
la_data_in[61] I
la_data_in[62] I
la_data_in[63] I
la_data_in[64] I
la_data_in[65] I
la_data_in[66] I
la_data_in[67] I
la_data_in[68] I
la_data_in[69] I
la_data_in[6] I
la_data_in[70] I
la_data_in[71] I
la_data_in[72] I
la_data_in[73] I
la_data_in[74] I
la_data_in[75] I
la_data_in[76] I
la_data_in[77] I
la_data_in[78] I
la_data_in[79] I
la_data_in[7] I
la_data_in[80] I
la_data_in[81] I
la_data_in[82] I
la_data_in[83] I
la_data_in[84] I
la_data_in[85] I
la_data_in[86] I
la_data_in[87] I
la_data_in[88] I
la_data_in[89] I
la_data_in[8] I
la_data_in[90] I
la_data_in[91] I
la_data_in[92] I
la_data_in[93] I
la_data_in[94] I
la_data_in[95] I
la_data_in[96] I
la_data_in[97] I
la_data_in[98] I
la_data_in[99] I
la_data_in[9] I
la_data_out[0] O
la_data_out[100] O
la_data_out[101] O
la_data_out[102] O
la_data_out[103] O
la_data_out[104] O
la_data_out[105] O
la_data_out[106] O
la_data_out[107] O
la_data_out[108] O
la_data_out[109] O
la_data_out[10] O
la_data_out[110] O
la_data_out[111] O
la_data_out[112] O
la_data_out[113] O
la_data_out[114] O
la_data_out[115] O
la_data_out[116] O
la_data_out[117] O
la_data_out[118] O
la_data_out[119] O
la_data_out[11] O
la_data_out[120] O
la_data_out[121] O
la_data_out[122] O
la_data_out[123] O
la_data_out[124] O
la_data_out[125] O
la_data_out[126] O
la_data_out[127] O
la_data_out[12] O
la_data_out[13] O
la_data_out[14] O
la_data_out[15] O
la_data_out[16] O
la_data_out[17] O
la_data_out[18] O
la_data_out[19] O
la_data_out[1] O
la_data_out[20] O
la_data_out[21] O
la_data_out[22] O
la_data_out[23] O
la_data_out[24] O
la_data_out[25] O
la_data_out[26] O
la_data_out[27] O
la_data_out[28] O
la_data_out[29] O
la_data_out[2] O
la_data_out[30] O
la_data_out[31] O
la_data_out[32] O
la_data_out[33] O
la_data_out[34] O
la_data_out[35] O
la_data_out[36] O
la_data_out[37] O
la_data_out[38] O
la_data_out[39] O
la_data_out[3] O
la_data_out[40] O
la_data_out[41] O
la_data_out[42] O
la_data_out[43] O
la_data_out[44] O
la_data_out[45] O
la_data_out[46] O
la_data_out[47] O
la_data_out[48] O
la_data_out[49] O
la_data_out[4] O
la_data_out[50] O
la_data_out[51] O
la_data_out[52] O
la_data_out[53] O
la_data_out[54] O
la_data_out[55] O
la_data_out[56] O
la_data_out[57] O
la_data_out[58] O
la_data_out[59] O
la_data_out[5] O
la_data_out[60] O
la_data_out[61] O
la_data_out[62] O
la_data_out[63] O
la_data_out[64] O
la_data_out[65] O
la_data_out[66] O
la_data_out[67] O
la_data_out[68] O
la_data_out[69] O
la_data_out[6] O
la_data_out[70] O
la_data_out[71] O
la_data_out[72] O
la_data_out[73] O
la_data_out[74] O
la_data_out[75] O
la_data_out[76] O
la_data_out[77] O
la_data_out[78] O
la_data_out[79] O
la_data_out[7] O
la_data_out[80] O
la_data_out[81] O
la_data_out[82] O
la_data_out[83] O
la_data_out[84] O
la_data_out[85] O
la_data_out[86] O
la_data_out[87] O
la_data_out[88] O
la_data_out[89] O
la_data_out[8] O
la_data_out[90] O
la_data_out[91] O
la_data_out[92] O
la_data_out[93] O
la_data_out[94] O
la_data_out[95] O
la_data_out[96] O
la_data_out[97] O
la_data_out[98] O
la_data_out[99] O
la_data_out[9] O
la_oenb[0] I
la_oenb[100] I
la_oenb[101] I
la_oenb[102] I
la_oenb[103] I
la_oenb[104] I
la_oenb[105] I
la_oenb[106] I
la_oenb[107] I
la_oenb[108] I
la_oenb[109] I
la_oenb[10] I
la_oenb[110] I
la_oenb[111] I
la_oenb[112] I
la_oenb[113] I
la_oenb[114] I
la_oenb[115] I
la_oenb[116] I
la_oenb[117] I
la_oenb[118] I
la_oenb[119] I
la_oenb[11] I
la_oenb[120] I
la_oenb[121] I
la_oenb[122] I
la_oenb[123] I
la_oenb[124] I
la_oenb[125] I
la_oenb[126] I
la_oenb[127] I
la_oenb[12] I
la_oenb[13] I
la_oenb[14] I
la_oenb[15] I
la_oenb[16] I
la_oenb[17] I
la_oenb[18] I
la_oenb[19] I
la_oenb[1] I
la_oenb[20] I
la_oenb[21] I
la_oenb[22] I
la_oenb[23] I
la_oenb[24] I
la_oenb[25] I
la_oenb[26] I
la_oenb[27] I
la_oenb[28] I
la_oenb[29] I
la_oenb[2] I
la_oenb[30] I
la_oenb[31] I
la_oenb[32] I
la_oenb[33] I
la_oenb[34] I
la_oenb[35] I
la_oenb[36] I
la_oenb[37] I
la_oenb[38] I
la_oenb[39] I
la_oenb[3] I
la_oenb[40] I
la_oenb[41] I
la_oenb[42] I
la_oenb[43] I
la_oenb[44] I
la_oenb[45] I
la_oenb[46] I
la_oenb[47] I
la_oenb[48] I
la_oenb[49] I
la_oenb[4] I
la_oenb[50] I
la_oenb[51] I
la_oenb[52] I
la_oenb[53] I
la_oenb[54] I
la_oenb[55] I
la_oenb[56] I
la_oenb[57] I
la_oenb[58] I
la_oenb[59] I
la_oenb[5] I
la_oenb[60] I
la_oenb[61] I
la_oenb[62] I
la_oenb[63] I
la_oenb[64] I
la_oenb[65] I
la_oenb[66] I
la_oenb[67] I
la_oenb[68] I
la_oenb[69] I
la_oenb[6] I
la_oenb[70] I
la_oenb[71] I
la_oenb[72] I
la_oenb[73] I
la_oenb[74] I
la_oenb[75] I
la_oenb[76] I
la_oenb[77] I
la_oenb[78] I
la_oenb[79] I
la_oenb[7] I
la_oenb[80] I
la_oenb[81] I
la_oenb[82] I
la_oenb[83] I
la_oenb[84] I
la_oenb[85] I
la_oenb[86] I
la_oenb[87] I
la_oenb[88] I
la_oenb[89] I
la_oenb[8] I
la_oenb[90] I
la_oenb[91] I
la_oenb[92] I
la_oenb[93] I
la_oenb[94] I
la_oenb[95] I
la_oenb[96] I
la_oenb[97] I
la_oenb[98] I
la_oenb[99] I
la_oenb[9] I
user_clock2 I
user_irq[0] O
user_irq[1] O
user_irq[2] O
wb_clk_i I
wb_rst_i I
wbs_ack_o O
wbs_adr_i[0] I
wbs_adr_i[10] I
wbs_adr_i[11] I
wbs_adr_i[12] I
wbs_adr_i[13] I
wbs_adr_i[14] I
wbs_adr_i[15] I
wbs_adr_i[16] I
wbs_adr_i[17] I
wbs_adr_i[18] I
wbs_adr_i[19] I
wbs_adr_i[1] I
wbs_adr_i[20] I
wbs_adr_i[21] I
wbs_adr_i[22] I
wbs_adr_i[23] I
wbs_adr_i[24] I
wbs_adr_i[25] I
wbs_adr_i[26] I
wbs_adr_i[27] I
wbs_adr_i[28] I
wbs_adr_i[29] I
wbs_adr_i[2] I
wbs_adr_i[30] I
wbs_adr_i[31] I
wbs_adr_i[3] I
wbs_adr_i[4] I
wbs_adr_i[5] I
wbs_adr_i[6] I
wbs_adr_i[7] I
wbs_adr_i[8] I
wbs_adr_i[9] I
wbs_cyc_i I
wbs_dat_i[0] I
wbs_dat_i[10] I
wbs_dat_i[11] I
wbs_dat_i[12] I
wbs_dat_i[13] I
wbs_dat_i[14] I
wbs_dat_i[15] I
wbs_dat_i[16] I
wbs_dat_i[17] I
wbs_dat_i[18] I
wbs_dat_i[19] I
wbs_dat_i[1] I
wbs_dat_i[20] I
wbs_dat_i[21] I
wbs_dat_i[22] I
wbs_dat_i[23] I
wbs_dat_i[24] I
wbs_dat_i[25] I
wbs_dat_i[26] I
wbs_dat_i[27] I
wbs_dat_i[28] I
wbs_dat_i[29] I
wbs_dat_i[2] I
wbs_dat_i[30] I
wbs_dat_i[31] I
wbs_dat_i[3] I
wbs_dat_i[4] I
wbs_dat_i[5] I
wbs_dat_i[6] I
wbs_dat_i[7] I
wbs_dat_i[8] I
wbs_dat_i[9] I
wbs_dat_o[0] O
wbs_dat_o[10] O
wbs_dat_o[11] O
wbs_dat_o[12] O
wbs_dat_o[13] O
wbs_dat_o[14] O
wbs_dat_o[15] O
wbs_dat_o[16] O
wbs_dat_o[17] O
wbs_dat_o[18] O
wbs_dat_o[19] O
wbs_dat_o[1] O
wbs_dat_o[20] O
wbs_dat_o[21] O
wbs_dat_o[22] O
wbs_dat_o[23] O
wbs_dat_o[24] O
wbs_dat_o[25] O
wbs_dat_o[26] O
wbs_dat_o[27] O
wbs_dat_o[28] O
wbs_dat_o[29] O
wbs_dat_o[2] O
wbs_dat_o[30] O
wbs_dat_o[31] O
wbs_dat_o[3] O
wbs_dat_o[4] O
wbs_dat_o[5] O
wbs_dat_o[6] O
wbs_dat_o[7] O
wbs_dat_o[8] O
wbs_dat_o[9] O
wbs_sel_i[0] I
wbs_sel_i[1] I
wbs_sel_i[2] I
wbs_sel_i[3] I
wbs_stb_i I
wbs_we_i I

*D_NET *67 0.159293
*CONN
*P io_in[9] I
*I *727:i_rx I *D Modbus_w_RegSpace_Controller
*CAP
1 io_in[9] 0.0010394
2 *727:i_rx 0.000167078
3 *67:17 0.0074649
4 *67:16 0.00729782
5 *67:14 0.0111707
6 *67:13 0.0111707
7 *67:11 0.049277
8 *67:10 0.0503164
9 *67:10 *68:264 0
10 *67:14 *508:15 0.00206485
11 *67:14 *510:17 0.00162106
12 *67:14 *536:11 0.000557225
13 *67:14 *686:21 0
14 *67:14 *707:21 0.0074542
15 *67:17 *518:16 0.000860335
16 *67:17 *618:10 0.00883098
*RES
1 io_in[9] *67:10 15.2168 
2 *67:10 *67:11 1372.26 
3 *67:11 *67:13 4.5 
4 *67:13 *67:14 422.482 
5 *67:14 *67:16 4.5 
6 *67:16 *67:17 271.925 
7 *67:17 *727:i_rx 9.00671 
*END

*D_NET *68 1.53021
*CONN
*P io_oeb[24] O
*P io_oeb[23] O
*P io_oeb[15] O
*P io_oeb[14] O
*P io_oeb[13] O
*P io_oeb[12] O
*P io_oeb[11] O
*P io_oeb[10] O
*P io_oeb[9] O
*P io_oeb[8] O
*P io_oeb[7] O
*P io_oeb[6] O
*P io_oeb[5] O
*P io_oeb[4] O
*P io_oeb[3] O
*P io_oeb[2] O
*P io_oeb[1] O
*P io_oeb[16] O
*P io_oeb[17] O
*P io_oeb[18] O
*P io_oeb[19] O
*P io_oeb[20] O
*P io_oeb[21] O
*P io_oeb[22] O
*P io_oeb[25] O
*P io_oeb[26] O
*P io_oeb[27] O
*P io_oeb[28] O
*P io_oeb[29] O
*P io_oeb[30] O
*P io_oeb[31] O
*P io_oeb[32] O
*P io_oeb[33] O
*P io_oeb[34] O
*P io_oeb[35] O
*P io_oeb[36] O
*P io_oeb[0] O
*P io_oeb[37] O
*P wb_rst_i I
*I *727:i_rst I *D Modbus_w_RegSpace_Controller
*CAP
1 io_oeb[24] 0.000705091
2 io_oeb[23] 0.000570108
3 io_oeb[15] 0.000570108
4 io_oeb[14] 0.000697337
5 io_oeb[13] 0.000743627
6 io_oeb[12] 0.000697337
7 io_oeb[11] 0.000697337
8 io_oeb[10] 0.000697337
9 io_oeb[9] 0.000697337
10 io_oeb[8] 0.000697337
11 io_oeb[7] 0.000697337
12 io_oeb[6] 0.000697337
13 io_oeb[5] 0.000697337
14 io_oeb[4] 0.000697337
15 io_oeb[3] 0.000697337
16 io_oeb[2] 0.000697337
17 io_oeb[1] 0.00068698
18 io_oeb[16] 0.000570108
19 io_oeb[17] 0.000570108
20 io_oeb[18] 0.000570108
21 io_oeb[19] 0.000570108
22 io_oeb[20] 0.000570108
23 io_oeb[21] 0.000570108
24 io_oeb[22] 0.000570108
25 io_oeb[25] 0.000705091
26 io_oeb[26] 0.000744625
27 io_oeb[27] 0.000705091
28 io_oeb[28] 0.000737649
29 io_oeb[29] 0.000737649
30 io_oeb[30] 0.000778764
31 io_oeb[31] 0.000737649
32 io_oeb[32] 0.000778764
33 io_oeb[33] 0.000737649
34 io_oeb[34] 0.000778764
35 io_oeb[35] 0.000737649
36 io_oeb[36] 0.000737649
37 io_oeb[0] 0.000889542
38 io_oeb[37] 0.000778764
39 wb_rst_i 0.00114947
40 *727:i_rst 0.00031446
41 *68:278 0.0093161
42 *68:276 0.0179663
43 *68:274 0.017977
44 *68:272 0.017977
45 *68:270 0.0179699
46 *68:268 0.0208247
47 *68:266 0.0237238
48 *68:264 0.0237537
49 *68:262 0.0237166
50 *68:260 0.0237159
51 *68:258 0.0237451
52 *68:256 0.0237088
53 *68:254 0.0237452
54 *68:253 0.0115141
55 *68:251 0.00151703
56 *68:245 0.012354
57 *68:244 0.011696
58 *68:241 0.000731797
59 *68:239 0.0140373
60 *68:230 0.0286523
61 *68:221 0.0286745
62 *68:212 0.028668
63 *68:203 0.0286547
64 *68:194 0.0286745
65 *68:185 0.0286745
66 *68:176 0.0286547
67 *68:175 0.0140384
68 *68:173 0.00100065
69 *68:167 0.00941745
70 *68:166 0.0100425
71 *68:161 0.013059
72 *68:152 0.0233207
73 *68:143 0.0233464
74 *68:134 0.0125067
75 *68:130 0.00574509
76 *68:119 0.0305968
77 *68:118 0.0302823
78 *68:116 0.0100188
79 *68:107 0.0125068
80 *68:98 0.0146881
81 *68:89 0.014752
82 *68:80 0.0147195
83 *68:71 0.0147643
84 *68:62 0.0147257
85 *68:53 0.0147341
86 *68:44 0.0129571
87 *68:35 0.00617003
88 *68:26 0.00329416
89 *68:25 0.00240462
90 *68:23 0.125987
91 *68:22 0.125987
92 *68:20 0.00524602
93 *68:11 0.00617137
94 *68:10 0.00148105
95 *68:10 *503:8 0
96 *68:11 *537:11 0.000892412
97 *68:20 *537:11 0.014285
98 *68:35 *537:11 0.000503209
99 *68:44 *537:11 0.0148527
100 *68:53 *537:11 0.0197571
101 *68:62 *537:11 0.0197411
102 *68:71 *537:11 0.0197879
103 *68:80 *537:11 0.0197447
104 *68:89 *537:11 0.0197932
105 *68:98 *537:11 0.0197571
106 *68:107 *537:11 0.0197482
107 *68:116 *537:11 0.00379962
108 *68:119 *504:10 0
109 *68:119 *518:16 0.000316653
110 *68:119 *519:14 0.0214098
111 *68:119 *527:12 0.160782
112 *68:119 *538:14 0
113 *68:119 *540:12 0.00721583
114 *68:119 *547:16 0.00322068
115 *68:119 *547:18 0.00551256
116 *68:119 *550:20 0.0335167
117 *68:119 *593:10 0
118 *68:119 *604:14 0.00306465
119 *68:119 *618:10 0
120 *68:119 *626:10 0
121 *68:119 *630:16 0.000217702
122 *68:266 io_out[8] 0
123 *67:10 *68:264 0
*RES
1 wb_rst_i *68:10 39.5106 
2 *68:10 *68:11 14.4972 
3 *68:11 io_oeb[37] 5.5737 
4 *68:11 *68:20 230.428 
5 *68:20 *68:22 4.5 
6 *68:22 *68:23 3480.86 
7 *68:23 *68:25 4.5 
8 *68:25 *68:26 67.6495 
9 *68:26 io_oeb[0] 6.10913 
10 *68:20 *68:35 8.2684 
11 *68:35 io_oeb[36] 5.5737 
12 *68:35 *68:44 239.356 
13 *68:44 io_oeb[35] 5.5737 
14 *68:44 *68:53 318.254 
15 *68:53 io_oeb[34] 5.5737 
16 *68:53 *68:62 318.254 
17 *68:62 io_oeb[33] 5.5737 
18 *68:62 *68:71 319.085 
19 *68:71 io_oeb[32] 5.5737 
20 *68:71 *68:80 318.254 
21 *68:80 io_oeb[31] 5.5737 
22 *68:80 *68:89 319.085 
23 *68:89 io_oeb[30] 5.5737 
24 *68:89 *68:98 318.254 
25 *68:98 io_oeb[29] 5.5737 
26 *68:98 *68:107 318.254 
27 *68:107 io_oeb[28] 5.5737 
28 *68:107 *68:116 158.174 
29 *68:116 *68:118 4.5 
30 *68:118 *68:119 1999.51 
31 *68:119 *727:i_rst 12.744 
32 *68:116 *68:130 147.573 
33 *68:130 *68:134 14.4117 
34 *68:134 io_oeb[27] 5.49721 
35 *68:134 *68:143 318.254 
36 *68:143 io_oeb[26] 5.49721 
37 *68:143 *68:152 319.085 
38 *68:152 io_oeb[25] 5.49721 
39 *68:152 *68:161 318.462 
40 *68:161 *68:166 38.0082 
41 *68:166 *68:167 253.475 
42 *68:167 *68:173 20.5572 
43 *68:173 *68:175 4.5 
44 *68:175 *68:176 391.164 
45 *68:176 io_oeb[22] 20.5727 
46 *68:176 *68:185 391.164 
47 *68:185 io_oeb[21] 20.5727 
48 *68:185 *68:194 391.719 
49 *68:194 io_oeb[20] 20.5727 
50 *68:194 *68:203 391.164 
51 *68:203 io_oeb[19] 20.5727 
52 *68:203 *68:212 391.164 
53 *68:212 io_oeb[18] 20.5727 
54 *68:212 *68:221 391.719 
55 *68:221 io_oeb[17] 20.5727 
56 *68:221 *68:230 391.164 
57 *68:230 io_oeb[16] 20.5727 
58 *68:230 *68:239 391.164 
59 *68:239 *68:241 4.5 
60 *68:241 *68:244 8.82351 
61 *68:244 *68:245 321.284 
62 *68:245 *68:251 27.3661 
63 *68:251 *68:253 3.36879 
64 *68:253 *68:254 324.898 
65 *68:254 *68:256 324.068 
66 *68:256 *68:258 324.898 